When running rotorSE between using DAC or not using DAC, make sure to change:

1) Change input files in main rotor.py script; i.e. lines 307 ff.

2) Delete line 37 with AFTabMod input in AeroDyn15.dat 