/Users/rfeil/work/2_OpenFAST/openfast_BDloads_output/build/glue-codes/openfast/openfast RotorSE_FAST_BAR_009.fst